Version 4.1
SHEET 1 1656 680
WIRE 672 -32 352 -32
WIRE 768 -32 672 -32
WIRE 864 -32 768 -32
WIRE 976 -32 864 -32
WIRE 672 -16 672 -32
WIRE 768 -16 768 -32
WIRE 864 -16 864 -32
WIRE 976 -16 976 -32
WIRE 112 32 -48 32
WIRE 240 32 112 32
WIRE 352 32 352 -32
WIRE 352 32 240 32
WIRE 240 48 240 32
WIRE 672 64 672 48
WIRE 672 64 624 64
WIRE 352 80 352 32
WIRE 432 80 352 80
WIRE -48 96 -48 32
WIRE 112 96 112 32
WIRE 768 96 768 48
WIRE 768 96 624 96
WIRE 864 96 864 64
WIRE 864 96 768 96
WIRE 1056 112 1056 80
WIRE 432 128 240 128
WIRE 976 128 976 64
WIRE 976 128 624 128
WIRE 784 160 624 160
WIRE 112 176 112 160
WIRE 256 176 112 176
WIRE 432 176 256 176
WIRE 976 176 976 128
WIRE 976 176 960 176
WIRE 256 192 256 176
WIRE 720 192 624 192
WIRE 784 192 784 160
WIRE 896 192 784 192
WIRE 1056 208 1056 176
WIRE 1056 208 960 208
WIRE 1136 208 1056 208
WIRE 1280 208 1216 208
WIRE 1376 208 1280 208
WIRE 1472 208 1376 208
WIRE 1600 208 1472 208
WIRE -48 224 -48 176
WIRE 112 224 112 176
WIRE 112 224 -48 224
WIRE 1280 224 1280 208
WIRE 1376 224 1376 208
WIRE 1472 288 1472 208
WIRE 1600 304 1600 208
WIRE 720 320 720 192
WIRE 1280 320 1280 288
WIRE 1280 320 720 320
WIRE 1376 320 1376 304
WIRE 1376 320 1280 320
WIRE 1376 336 1376 320
WIRE 1376 448 1376 416
WIRE 1424 448 1376 448
WIRE 1472 448 1472 352
WIRE 1472 448 1424 448
WIRE 1600 448 1600 384
WIRE 1600 448 1472 448
WIRE 1424 464 1424 448
FLAG 256 192 0
FLAG 1056 80 0
FLAG 1424 464 0
SYMBOL voltage -48 80 R0
WINDOW 123 0 0 Left 0
WINDOW 39 0 0 Left 0
SYMATTR InstName V1
SYMATTR Value 12
SYMBOL res 224 32 R0
SYMATTR InstName R1
SYMATTR Value 73.2k
SYMBOL cap 96 96 R0
SYMATTR InstName C1
SYMATTR Value 10”
SYMBOL LM25085_TRANS 544 160 R0
SYMATTR InstName X1
SYMATTR Prefix X
SYMATTR SpiceModel LM25085_TRANS
SYMBOL cap 656 -16 R0
SYMATTR InstName C2
SYMATTR Value 470n
SYMATTR SpiceLine Rser=1m
SYMBOL cap 752 -16 R0
SYMATTR InstName C3
SYMATTR Value 1n
SYMBOL res 848 -32 R0
SYMATTR InstName R2
SYMATTR Value 1.05k
SYMBOL res 960 -32 R0
SYMATTR InstName R3
SYMATTR Value 10m
SYMBOL CSD25402Q3A 928 192 R0
SYMATTR InstName X2
SYMATTR SpiceModel CSD25402Q3A
SYMATTR Prefix X
SYMBOL schottky 1040 112 R0
SYMATTR InstName D1
SYMBOL ind 1120 224 R270
WINDOW 0 32 56 VTop 2
WINDOW 3 5 56 VBottom 2
SYMATTR InstName L1
SYMATTR Value 15”
SYMBOL cap 1264 224 R0
SYMATTR InstName C4
SYMATTR Value 2.4n
SYMBOL res 1360 208 R0
SYMATTR InstName R4
SYMATTR Value 10k
SYMBOL cap 1456 288 R0
SYMATTR InstName C5
SYMATTR Value 33”
SYMBOL res 1360 320 R0
SYMATTR InstName R5
SYMATTR Value 2.2k
TEXT 1240 -80 Left 2 !.include CSD25402Q3A.lib\n.include LM25085_TRANS_0p9.lib
TEXT -80 488 Left 2 !.options plotwinsize=0\n.options method=gear\n.tran 0 5m startup
